4
shifted.coords_from_output_S0.xyz
 C -2.707762329462154E-003 -3.801813303707957E-003 -9.020802505374016E-004
 O  0.596209775357381        1.01094838443145       0.258266655217898
 H -5.240113679783330E-002 -0.861172281194226       0.702957722713277
 H -0.543100876230085      -0.146974289933516      -0.960322297680638
